 &time_control
 run_days                            = 3,
 run_hours                           = 0,
 run_minutes                         = 0,
 run_seconds                         = 0,
 start_year                          = 2013, 2013, 2013, 2013,
 start_month                         = 07,   07,   07,   07,
 start_day                           = 31,   31,   31,   31,
 start_hour                          = 00,   00,   00,   00,
 start_minute                        = 00,   00,   00,   00,
 start_second                        = 00,   00,   00,   00,
 end_year                            = 2013, 2013, 2013, 2013,
 end_month                           = 08,   08,   08,   08,
 end_day                             = 03,   03,   03,   03,
 end_hour                            = 00,   00,   00,   00,
 end_minute                          = 00,   00,   00,   00,
 end_second                          = 00,   00,   00,   00,
 interval_seconds                    = 21600
 input_from_file                     = .true.,.true.,.true.,.true.
 history_interval                    = 180,  60,   60,  60,
 frames_per_outfile                  = 1000, 1000, 1000, 1000,
 restart                             = .false.,
 restart_interval                    = 5000,
 io_form_history                     = 2
 io_form_restart                     = 2
 io_form_input                       = 2
 io_form_boundary                    = 2
 debug_level                         = 0
 /

 &domains
 time_step                           = 60,
 time_step_fract_num                 = 0,
 time_step_fract_den                 = 1,
 max_dom                             = 4,
 e_we                                = 120,   121,    121,  126
 e_sn                                = 120,   121,    121,  126
 e_vert                              = 38,    38,    38,   38
 p_top_requested                     = 2000,
 num_metgrid_levels                  = 20,
 num_metgrid_soil_levels             = 4,
 dx                                  = 12500., 2500.,  500., 100.,
 dy                                  = 12500., 2500.,  500., 100.,
 grid_id                             = 1,     2,     3,   4,
 parent_id                           = 0,     1,     2,   3,
 i_parent_start    =   1,  48, 50, 55
 j_parent_start    =   1,  48, 51, 55
 parent_grid_ratio                   = 1,     5,     5,   5,
 parent_time_step_ratio              = 1,     5,     5,   5,
 feedback                            = 0,
 smooth_option                       = 0
 max_ts_locs                         = 31
 /

 &physics
 mp_physics                          = 6,     6,     6,  6,
 ra_lw_physics                       = 1,     1,     1,  1,
 ra_sw_physics                       = 1,     1,     1,  1,
 radt                                = 30,    30,    30, 30,
 sf_sfclay_physics                   = 1,     1,     1,  1,
 sf_surface_physics                  = 2,     2,     2,  2,
 bl_pbl_physics                      = 1,     1,     1,  0,
 bldt                                = 0,     0,     0,  0,
 cu_physics                          = 3,     0,     0,  0,
 cudt                                = 5,     5,     5,  5,
 isfflx                              = 1,
 ifsnow                              = 1,
 icloud                              = 1,
 surface_input_source                = 1,
 num_soil_layers                     = 4,
 num_land_cat                        = 24,
 sf_urban_physics                    = 1,     1,     1,  1,
 sf_urban_use_wur_config             = .false.,
 sf_urban_init_from_file             = .false.,
 /

 &fdda
 /

 &dynamics
 w_damping                           = 0,
 diff_opt                            = 1, 1,  1,  2,
 km_opt                              = 4, 4,  4,  3,
 diff_6th_opt                        = 0,      0,      0, 0 ,
 diff_6th_factor                     = 0.12,   0.12,   0.12 , 0.12,
 base_temp                           = 290.
 damp_opt                            = 0,
 zdamp                               = 5000.,  5000.,  5000., 5000.,
 dampcoef                            = 0.2,    0.2,    0.2, 0.2,
 khdif                               = 0,      0,      0,  0,
 kvdif                               = 0,      0,      0,  0 ,
 non_hydrostatic                     = .true., .true., .true.,.true.,
 moist_adv_opt                       = 1,      1,      1,    1, 
 scalar_adv_opt                      = 1,      1,      1,    1, 
 /

 &bdy_control
 spec_bdy_width                      = 5,
 spec_zone                           = 1,
 relax_zone                          = 4,
 specified                           = .true., .false.,.false.,.false.
 nested                              = .false., .true., .true.,.true.
 /

 &grib2
 /

 &namelist_quilt
 nio_tasks_per_group = 0,
 nio_groups = 1,
 /

