1010.00     305.00      11.18
28.933146 300.456940 11.176615  0.0  0.0  0.0
83.237099 300.186829 10.968365  0.0  0.0  0.0
135.993820 300.024078 10.831136  0.0  0.0  0.0
199.658920 299.956665 10.748639  0.0  0.0  0.0
274.590912 299.940918 10.698793  0.0  0.0  0.0
362.844666 299.945312 10.661117  0.0  0.0  0.0
466.071442 299.958527 10.629512  0.0  0.0  0.0
584.745972 299.974121 10.606192  0.0  0.0  0.0
719.298401 299.995514 10.573904  0.0  0.0  0.0
870.302612 300.029541 10.513230  0.0  0.0  0.0
1038.035767 300.100861 10.364844  0.0  0.0  0.0
1222.638306 300.323090 9.912911  0.0  0.0  0.0
1424.179077 301.089996 8.579694  0.0  0.0  0.0
1642.958984 302.458008 6.649090  0.0  0.0  0.0
1879.388794 303.647583 5.309632  0.0  0.0  0.0
2133.416992 304.619629 4.272369  0.0  0.0  0.0
2404.760742 305.690155 3.330010  0.0  0.0  0.0
2693.631104 306.935181 2.941299  0.0  0.0  0.0
3000.285645 308.188354 3.367702  0.0  0.0  0.0
3325.294189 309.055542 4.265486  0.0  0.0  0.0
3668.020264 309.644714 4.473819  0.0  0.0  0.0
4027.013184 310.387482 3.758672  0.0  0.0  0.0
4401.967285 311.407288 2.682891  0.0  0.0  0.0
4792.935059 312.750946 1.623096  0.0  0.0  0.0
5199.423828 314.545441 0.836299  0.0  0.0  0.0
5619.752441 316.505096 0.520279  0.0  0.0  0.0
6050.189453 318.204742 0.533063  0.0  0.0  0.0
6487.119629 319.573303 0.583473  0.0  0.0  0.0
6926.703125 320.838043 0.578917  0.0  0.0  0.0
7364.468262 322.221466 0.506449  0.0  0.0  0.0
7800.458496 323.804169 0.412545  0.0  0.0  0.0
8233.462891 325.550537 0.344377  0.0  0.0  0.0
8663.158203 327.129028 0.307706  0.0  0.0  0.0
9089.928711 328.409760 0.249762  0.0  0.0  0.0
9514.245117 329.488312 0.180377  0.0  0.0  0.0
9934.245117 330.459259 0.137735  0.0  0.0  0.0
10350.566406 331.613129 0.113242  0.0  0.0  0.0
10763.259766 333.156586 0.089618  0.0  0.0  0.0
11172.417969 335.351349 0.069290  0.0  0.0  0.0
11582.048828 338.464966 0.054246  0.0  0.0  0.0
11991.450195 342.468231 0.041700  0.0  0.0  0.0
12398.583984 347.550934 0.031890  0.0  0.0  0.0
12806.746094 354.216675 0.025341  0.0  0.0  0.0
13219.389648 362.010529 0.020615  0.0  0.0  0.0
13636.553711 369.699219 0.017033  0.0  0.0  0.0
14056.319336 377.168671 0.013817  0.0  0.0  0.0
14478.766602 384.813507 0.010197  0.0  0.0  0.0
14903.618164 392.294342 0.006387  0.0  0.0  0.0
15330.118164 399.457458 0.003157  0.0  0.0  0.0
15762.059570 406.688538 0.001859  0.0  0.0  0.0
16201.291016 413.556610 0.002346  0.0  0.0  0.0
16646.814453 420.696045 0.003285  0.0  0.0  0.0
17099.060547 429.186432 0.003740  0.0  0.0  0.0
17562.970703 438.610657 0.003273  0.0  0.0  0.0
18047.345703 449.947968 0.002412  0.0  0.0  0.0
18556.457031 462.145142 0.001650  0.0  0.0  0.0
19087.132812 474.185852 0.001119  0.0  0.0  0.0
19638.837891 486.034424 0.000928  0.0  0.0  0.0
20218.697266 499.543335 0.000963  0.0  0.0  0.0
20833.367188 514.627808 0.000999  0.0  0.0  0.0
21479.494141 531.267517 0.001002  0.0  0.0  0.0
22151.789062 548.746582 0.001000  0.0  0.0  0.0
22858.490234 567.860107 0.001000  0.0  0.0  0.0
23611.445312 588.546997 0.001000  0.0  0.0  0.0
24402.804688 611.561768 0.001000  0.0  0.0  0.0
25236.375000 637.515625 0.001000  0.0  0.0  0.0
26124.476562 667.042603 0.001000  0.0  0.0  0.0
27065.951172 699.186890 0.001000  0.0  0.0  0.0
28070.908203 735.328979 0.001000  0.0  0.0  0.0
29143.277344 775.732178 0.001000  0.0  0.0  0.0
30282.656250 818.436584 0.001000  0.0  0.0  0.0
31314.328125 858.357117 0.001000  0.0  0.0  0.0
