 &time_control
 run_days                            = 0,
 run_hours                           = 3,
 run_minutes                         = 00,
 run_seconds                         = 00,
 start_year                          = 0001, 0001, 0001,
 start_month                         = 01,   01,   01,
 start_day                           = 01,   01,   01,
 start_hour                          = 00,   01,   00,
 start_minute                        = 00,   30,   00,
 start_second                        = 00,   00,   00,
 end_year                            = 0001, 0001, 0001,
 end_month                           = 01,   01,   01,
 end_day                             = 01,   01,   01,
 end_hour                            = 01,   02,   00,
 end_minute                          = 00,   30,   00,
 end_second                          = 00,   00,   00,
 history_interval_m                  = 1,   10,   1,
 history_interval_s                  = 0,   00,   1,
 frames_per_outfile                  = 30, 1000, 1000,
 restart                             = .false.,
 restart_interval_m                  = 3000,
 io_form_history                     = 2
 io_form_restart                     = 2
 io_form_input                       = 2
 io_form_boundary                    = 2
 debug_level                         = 0
 /

 &domains
 time_step                           = 1,
 time_step_fract_num                 = 0,
 time_step_fract_den                 = 1,
 max_dom                             = 1,
 s_we                                = 1,     1,     1,
 e_we                                = 176,
 s_sn                                = 1,     1,     1,
 e_sn                                = 136,
 s_vert                              = 1,     1,     1,
 p_top_requested                     = 5000,
 e_vert                              = 62,
 eta_levels                          = 1.0, 0.99397155463275366,  0.9891526602647287,
        0.98299839086426166,  0.97558494679470542,  0.96706991954321297,
        0.95698614066960808,  0.94526291201661039,  0.93190594342071109,
        0.91692156760965482,  0.90030677394238257,  0.88207651180898006,
        0.86229743057357888,  0.84106057617440955,  0.81842792629120154,
        0.79447433168959247,  0.76930973267583691,  0.74307780949909163,
        0.71588258499870228,  0.68783524526343121,  0.65906991954321315,
        0.62975644951985454,  0.60001754477030889,  0.5699776797300804,
        0.53977690111601351,  0.50958494679470545,  0.47969499091616918,
        0.45040290682584994,  0.42198941084868929,  0.39471258759408256,
        0.36881453412924992,  0.34426618219569172,  0.32101956916688296,
        0.2990132364391383,   0.27818852841941344,  0.25848896963405138,
        0.2398604723592006,   0.22225102517518819,  0.20561090059693746,
        0.1898925512587594,   0.17505029846872569,  0.16104053983908642,
        0.14782133402543471,  0.13535281598754217,  0.1235966779133143,
        0.11251658447962626,  0.10207734233065142,  0.09224583441474174,
        0.082990189462756297, 0.074279989618479106, 0.066066130288087208,
        0.05828652997664157,  0.050888346742797817, 0.043826836231507925,
        0.037063690630677396, 0.030566727225538545, 0.024308331170516489,
        0.018268673760705949, 0.012456164028030098, 0.0068846093952764061,
        0.0015661562418894429, 0.0         
 dx                                  = 100
 dy                                  = 100
 ztop                                = 15000,
 grid_id                             = 1,
 parent_id                           = 0,
 i_parent_start                      = 0,
 j_parent_start                      = 0,
 parent_grid_ratio                   = 1,
 parent_time_step_ratio              = 1,
 feedback                            = 0,
 smooth_option                       = 0
 /

 &physics
 mp_physics                          = 0,     0,     0,
 ra_lw_physics                       = 0,     0,     0,
 ra_sw_physics                       = 0,     0,     0,
 radt                                = 0,     0,     0,
 sf_sfclay_physics                   = 1,     1,     1,
 sf_surface_physics                  = 0,     0,     0,
 bl_pbl_physics                      = 0,     0,     0,
 bldt                                = 0,     0,     0,
 cu_physics                          = 0,     0,     0,
 cudt                                = 0,     0,     0,
 isfflx                              = 0,
 num_soil_layers                     = 5,
 /

 &fdda
 /

 &dynamics
 rk_ord                              = 3,
 diff_opt                            = 2,
 km_opt                              = 3,
 damp_opt                            = 0,
 zdamp                               = 15000.,  5000.,  5000.,
 dampcoef                            = 0.1,    0.2,    0.2
 khdif                               = 1.,      1.,    .05,
 kvdif                               = 1.,      1.,    .05,
 c_s                                 = 0.25
 c_k                                 = 0.15
 mix_isotropic                       = 1
 smdiv                               = 0.1,    0.1,    0.1,
 emdiv                               = 0.01,   0.01,   0.01,
 epssm                               = 0.1,    0.1,    0.1
 tke_heat_flux                       = 0.16,
 time_step_sound                     = 6,      6,      6,
 h_mom_adv_order                     = 5,      5,      5,
 v_mom_adv_order                     = 3,      3,      3,
 h_sca_adv_order                     = 5,      5,      5,
 v_sca_adv_order                     = 3,      3,      3,
 mix_full_fields                     = .true., .true., .true.,
 non_hydrostatic                     = .true., .true., .true.,
 pert_coriolis                       = .true., .true., .true.,
 m_opt                               = 0,
 /

 &bdy_control
 periodic_x                          = .true., .false.,.false.,
 symmetric_xs                        = .false.,.false.,.false.,
 symmetric_xe                        = .false.,.false.,.false.,
 open_xs                             = .false.,.false.,.false.,
 open_xe                             = .false.,.false.,.false.,
 periodic_y                          = .true., .false.,.false.,
 symmetric_ys                        = .false.,.false.,.false.,
 symmetric_ye                        = .false.,.false.,.false.,
 open_ys                             = .false.,.false.,.false.,
 open_ye                             = .false.,.false.,.false.,
 nested                              = .false., .true., .true.,
 /

 &grib2
 /

 &namelist_quilt
 nio_tasks_per_group = 0,
 nio_groups = 1,
 /
