&time_control
    run_days = 0
    run_hours = 0
    run_minutes = 5
    run_seconds = 0
    start_year = 2013, 2013
    start_month = 5, 5
    start_day = 1, 1
    start_hour = 0, 0, 0, 0, 0
    start_minute = 0, 0, 0, 0, 0
    start_second = 0, 0, 0, 0, 0
    end_year = 2013, 2013
    end_month = 5, 5
    end_day = 2, 2
    end_hour = 0, 0, 0, 0, 0
    end_minute = 5, 5, 5, 5, 5
    end_second = 0, 0, 0, 0, 0
    interval_seconds = 21600
    input_from_file = .true., .true., .true., .true., .true.
    history_interval = 180, 60, 60, 60, 60
    frames_per_outfile = 1000, 1000, 1000, 1000, 1000
    restart = .false.
    restart_interval = 5000
    io_form_history = 2
    io_form_restart = 2
    io_form_input = 2
    io_form_boundary = 2
    debug_level = 0
/
&domains
    time_step = 60
    time_step_fract_num = 0
    time_step_fract_den = 1
    max_dom = 2
    e_we = 120, 121, 226, 126, 176
    e_sn = 120, 121, 206, 126, 136
    num_metgrid_levels = 92
    num_metgrid_soil_levels = 4
    dx = 12500.0, 2500.0, 500.0, 100.0, 100.0
    dy = 12500.0, 2500.0, 500.0, 100.0, 100.0
    grid_id = 1, 2, 3, 4, 5
    parent_id = 1, 1, 2, 3, 3
    i_parent_start = 1, 48, 29, 160, 55
    j_parent_start = 1, 48, 51, 55, 133
    parent_grid_ratio = 1, 5, 5, 5, 5
    parent_time_step_ratio = 1, 5, 5, 5, 5
    feedback = 0
    smooth_option = 0
    max_ts_locs = 57

    p_top_requested = 1000
    e_vert = 74, 74, 74, 74, 74
    eta_levels = 1.0,                       0.99421191128831299,  0.98958514826812849,  0.98367625218041377,   0.97655838524794414,
                      0.96838285571891347,  0.95870112135559438,  0.94744530276601047,  0.93462088213306749,   0.9202339396959881,
                      0.90428158484924004,  0.88677817094443068,  0.86778769000747558,  0.84739755793670579,   0.82566728133565903,
                      0.80266872663842503,  0.77850745078494887,  0.75332140543234494,  0.72721046598554695,   0.70028138549713437,
                      0.67266294542736116,  0.64451821579865431,  0.61596501370545731,  0.58712285073511083,   0.55812618988288065,
                      0.52913800149514079,  0.50043977074507839,  0.47231557438325439,  0.44503493645651632,   0.41884565163219539,
                      0.39398016446548717,  0.3704105656615998,   0.34809080488412658,  0.32696187390979314,   0.30696745576875156,
                      0.28805332668826317,  0.27016755544480436,  0.25326020433590829,  0.23728352853227014,   0.22219187640169447,
                      0.20794139048093696,  0.19449020682780963,  0.18179805631696985,  0.16982666334413157,   0.15853924744580114,
                      0.14790092200348867,  0.13787789683528531,  0.12843837528033888,  0.1195517567904311,    0.11118883628208323,
                      0.10330246698230749,  0.09583304261151257,  0.088729828058808871, 0.081949862945427374,  0.075456366807874403,
                      0.069218440069773235, 0.063209568901071531, 0.057410715175679049, 0.051829952653874897,  0.046480538250685273,
                      0.041374134064291058, 0.036519112883129826, 0.031920458509843014, 0.027582357338649388,  0.023507899327186641,
                      0.019698978320458513, 0.016156491402940443, 0.012879740842262649, 0.0098666334413157249, 0.0071139795664091707,
                      0.004616596062795914, 0.002368203339147769, 0.00036052828307999075,  0.0
/
&physics
    mp_physics = 6, 6, 6, 6, 6
    ra_lw_physics = 4, 4, 4, 4, 4
    ra_sw_physics = 4, 4, 4, 4, 4
    radt = 0, 0, 0, 30, 30
    sf_sfclay_physics = 1, 1, 1, 1, 1
    sf_surface_physics = 2, 2, 2, 2, 2
    bl_pbl_physics = 1, 1, 1, 0, 0
    bldt = 0, 0, 0, 0, 0
    cu_physics = 3, 3, 0, 0, 0
    cudt = 5, 5, 5, 5, 5
    isfflx = 1
    ifsnow = 1
    icloud = 1
    surface_input_source = 1
    num_soil_layers = 4
    num_land_cat = 24
    sf_urban_physics = 1, 1, 1, 1, 1
    sf_urban_use_wur_config = .true.
    sf_urban_init_from_file = .false.
/
&fdda
/
&dynamics
    w_damping = 0
    diff_opt = 1, 1, 1, 2, 2
    km_opt = 4, 4, 4, 3, 3
    diff_6th_opt = 0, 0, 0, 0, 0
    diff_6th_factor = 0.12, 0.12, 0.12, 0.12, 0.12
    base_temp = 290.0
    damp_opt = 0
    zdamp = 5000.0, 5000.0, 5000.0, 5000.0, 5000.0
    dampcoef = 0.2, 0.2, 0.2, 0.2, 0.2
    khdif = 0, 0, 0, 0, 0
    kvdif = 0, 0, 0, 0, 0
    non_hydrostatic = .true., .true., .true., .true., .true.
    moist_adv_opt = 1, 1, 1, 1, 1
    scalar_adv_opt = 1, 1, 1, 1, 1
/
&bdy_control
    spec_bdy_width = 5
    spec_zone = 1
    relax_zone = 4
    specified = .true., .false., .false., .false., .false.
    nested = .false., .true., .true., .true., .true.
/
&grib2
/
&namelist_quilt
    nio_tasks_per_group = 0
    nio_groups = 1
/
